<!DOCTYPE HTML PUBLIC "-//IETF//DTD HTML//EN">
<HTML>
<HEAD>
<meta name="GENERATOR" content="Microsoft&reg; HTML Help Workshop 4.1">
<!-- Sitemap 1.0 -->
</HEAD><BODY>
<UL>
	<LI> <OBJECT type="text/sitemap">
		<param name="Name" value="Introduction">
		<param name="Local" value="Introduction.htm">
		</OBJECT>
	<UL>
		<LI> <OBJECT type="text/sitemap">
			<param name="Name" value="Getting Started">
			<param name="Local" value="GettingStarted.htm">
			</OBJECT>
		<LI> <OBJECT type="text/sitemap">
			<param name="Name" value="User Interface">
			<param name="Local" value="UserInterface.htm">
			</OBJECT>
		<LI> <OBJECT type="text/sitemap">
			<param name="Name" value="The MV File">
			<param name="Local" value="MvFile.htm">
			</OBJECT>
		<LI> <OBJECT type="text/sitemap">
			<param name="Name" value="A Note on Terminology">
			<param name="Local" value="Terminology.htm">
			</OBJECT>
		<LI> <OBJECT type="text/sitemap">
			<param name="Name" value="New Features in Version 1.1">
			<param name="Local" value="NewFeatures1_1.htm">
			</OBJECT>
	</UL>
	<LI> <OBJECT type="text/sitemap">
		<param name="Name" value="Model Data Requirements">
		<param name="Local" value="ModelDataRequirements.htm">
		</OBJECT>
	<UL>
		<LI> <OBJECT type="text/sitemap">
			<param name="Name" value="MODFLOW-2000">
			<param name="Local" value="DataModflow2000.htm">
			</OBJECT>
		<LI> <OBJECT type="text/sitemap">
			<param name="Name" value="MODFLOW-2000 GWT">
			<param name="Local" value="DataMf2kgwt.htm">
			</OBJECT>
		<LI> <OBJECT type="text/sitemap">
			<param name="Name" value="MODFLOW-96">
			<param name="Local" value="DataModflow96.htm">
			</OBJECT>
		<LI> <OBJECT type="text/sitemap">
			<param name="Name" value="MOC3D">
			<param name="Local" value="DataMoc3d.htm">
			</OBJECT>
		<LI> <OBJECT type="text/sitemap">
			<param name="Name" value="MODPATH">
			<param name="Local" value="DataModpath.htm">
			</OBJECT>
		<LI> <OBJECT type="text/sitemap">
			<param name="Name" value="MT3DMS">
			<param name="Local" value="DataMt3dms.htm">
			</OBJECT>
		<LI> <OBJECT type="text/sitemap">
			<param name="Name" value="PHAST">
			<param name="Local" value="DataPhast.htm">
			</OBJECT>
		<LI> <OBJECT type="text/sitemap">
			<param name="Name" value="SUTRA">
			<param name="Local" value="DataSutra.htm">
			</OBJECT>
		<LI> <OBJECT type="text/sitemap">
			<param name="Name" value="Moving Model Data Files">
			<param name="Local" value="MovingModelData.htm">
			</OBJECT>
	</UL>
	<LI> <OBJECT type="text/sitemap">
		<param name="Name" value="Loading Model Data">
		<param name="Local" value="LoadModelData.htm">
		</OBJECT>
	<UL>
		<LI> <OBJECT type="text/sitemap">
			<param name="Name" value="MODFLOW-2000">
			<param name="Local" value="LoadModflow2000.htm">
			</OBJECT>
		<LI> <OBJECT type="text/sitemap">
			<param name="Name" value="MODFLOW-2000 GWT">
			<param name="Local" value="LoadMf2kgwt.htm">
			</OBJECT>
		<LI> <OBJECT type="text/sitemap">
			<param name="Name" value="MODFLOW-96">
			<param name="Local" value="LoadModflow96.htm">
			</OBJECT>
		<LI> <OBJECT type="text/sitemap">
			<param name="Name" value="MOC3D">
			<param name="Local" value="LoadMoc3d.htm">
			</OBJECT>
		<LI> <OBJECT type="text/sitemap">
			<param name="Name" value="MODPATH">
			<param name="Local" value="LoadModpath.htm">
			</OBJECT>
		<LI> <OBJECT type="text/sitemap">
			<param name="Name" value="MT3DMS">
			<param name="Local" value="LoadMt3dms.htm">
			</OBJECT>
		<LI> <OBJECT type="text/sitemap">
			<param name="Name" value="PHAST">
			<param name="Local" value="LoadPhast.htm">
			</OBJECT>
		<LI> <OBJECT type="text/sitemap">
			<param name="Name" value="SUTRA">
			<param name="Local" value="LoadSutra.htm">
			</OBJECT>
		<LI> <OBJECT type="text/sitemap">
			<param name="Name" value="Binary (Unformatted) Data Type">
			<param name="Local" value="BinaryDataType.htm">
			</OBJECT>
	</UL>
	<LI> <OBJECT type="text/sitemap">
		<param name="Name" value="Zooming, Rotation, and Panning">
		<param name="Local" value="ZoomRotatePan.htm">
		</OBJECT>
	<UL>
		<LI> <OBJECT type="text/sitemap">
			<param name="Name" value="Trackball-Mode Interaction">
			<param name="Local" value="Trackball.htm">
			</OBJECT>
		<LI> <OBJECT type="text/sitemap">
			<param name="Name" value="Joystick-Mode Interaction">
			<param name="Local" value="Joystick.htm">
			</OBJECT>
		<LI> <OBJECT type="text/sitemap">
			<param name="Name" value="Changing Interaction Mode">
			<param name="Local" value="ChangeInteractionMode.htm">
			</OBJECT>
	</UL>
	<LI> <OBJECT type="text/sitemap">
		<param name="Name" value="Coordinates and Indices">
		<param name="Local" value="CoordinatesAndIndices.htm">
		</OBJECT>
	<UL>
		<LI> <OBJECT type="text/sitemap">
			<param name="Name" value="The x-y-z Axis System">
			<param name="Local" value="AxisSystem.htm">
			</OBJECT>
		<LI> <OBJECT type="text/sitemap">
			<param name="Name" value="The i-j-k Index System for Cells">
			<param name="Local" value="CellIndex.htm">
			</OBJECT>
		<LI> <OBJECT type="text/sitemap">
			<param name="Name" value="The i-j-k Index System for Gridlines">
			<param name="Local" value="GridlineIndex.htm">
			</OBJECT>
		<LI> <OBJECT type="text/sitemap">
			<param name="Name" value="Treatment of Quasi-3d Confining Bed">
			<param name="Local" value="Quasi3DConfiningBed.htm">
			</OBJECT>
	</UL>
	<LI> <OBJECT type="text/sitemap">
		<param name="Name" value="Data Visualization">
		<param name="Local" value="DataVisualization.htm">
		</OBJECT>
	<UL>
		<LI> <OBJECT type="text/sitemap">
			<param name="Name" value="Scalar Data">
			<param name="Local" value="ScalarData.htm">
			</OBJECT>
		<LI> <OBJECT type="text/sitemap">
			<param name="Name" value="Color Bar">
			<param name="Local" value="ColorBar.htm">
			</OBJECT>
		<LI> <OBJECT type="text/sitemap">
			<param name="Name" value="Solid">
			<param name="Local" value="Solid.htm">
			</OBJECT>
		<LI> <OBJECT type="text/sitemap">
			<param name="Name" value="Isosurface">
			<param name="Local" value="Isosurface.htm">
			</OBJECT>
		<LI> <OBJECT type="text/sitemap">
			<param name="Name" value="Thresholding">
			<param name="Local" value="Threshold.htm">
			</OBJECT>
		<LI> <OBJECT type="text/sitemap">
			<param name="Name" value="Cropping">
			<param name="Local" value="Cropping.htm">
			</OBJECT>
		<LI> <OBJECT type="text/sitemap">
			<param name="Name" value="Vector Data">
			<param name="Local" value="VectorData.htm">
			</OBJECT>
		<LI> <OBJECT type="text/sitemap">
			<param name="Name" value="Pathlines">
			<param name="Local" value="Pathlines.htm">
			</OBJECT>
		<LI> <OBJECT type="text/sitemap">
			<param name="Name" value="Particles">
			<param name="Local" value="Particles.htm">
			</OBJECT>
		<LI> <OBJECT type="text/sitemap">
			<param name="Name" value="Model Features">
			<param name="Local" value="ModelFeatures.htm">
			</OBJECT>
		<LI> <OBJECT type="text/sitemap">
			<param name="Name" value="Auxiliary Graphic Objects">
			<param name="Local" value="AuxiliaryGraphicalObjects.htm">
			</OBJECT>
		<LI> <OBJECT type="text/sitemap">
			<param name="Name" value="Overlay">
			<param name="Local" value="Overlay.htm">
			</OBJECT>
		<LI> <OBJECT type="text/sitemap">
			<param name="Name" value="Simulation Time">
			<param name="Local" value="SimulationTime.htm">
			</OBJECT>
	</UL>
	<LI> <OBJECT type="text/sitemap">
		<param name="Name" value="Toolboxes">
		<param name="Local" value="Toolboxes.htm">
		</OBJECT>
	<UL>
		<LI> <OBJECT type="text/sitemap">
			<param name="Name" value="Data">
			<param name="Local" value="Toolbox_Data.htm">
			</OBJECT>
		<LI> <OBJECT type="text/sitemap">
			<param name="Name" value="Color Bar">
			<param name="Local" value="Toolbox_ColorBar.htm">
			</OBJECT>
		<LI> <OBJECT type="text/sitemap">
			<param name="Name" value="Lighting">
			<param name="Local" value="Toolbox_Lighting.htm">
			</OBJECT>
		<LI> <OBJECT type="text/sitemap">
			<param name="Name" value="Grid">
			<param name="Local" value="Toolbox_Grid.htm">
			</OBJECT>
		<LI> <OBJECT type="text/sitemap">
			<param name="Name" value="Geometry">
			<param name="Local" value="Toolbox_Geometry.htm">
			</OBJECT>
		<LI> <OBJECT type="text/sitemap">
			<param name="Name" value="Overlay">
			<param name="Local" value="Toolbox_Overlay.htm">
			</OBJECT>
		<LI> <OBJECT type="text/sitemap">
			<param name="Name" value="Solid">
			<param name="Local" value="Toolbox_Solid.htm">
			</OBJECT>
		<LI> <OBJECT type="text/sitemap">
			<param name="Name" value="Isosurface">
			<param name="Local" value="Toolbox_Isosurface.htm">
			</OBJECT>
		<LI> <OBJECT type="text/sitemap">
			<param name="Name" value="Vector">
			<param name="Local" value="Toolbox_Vector.htm">
			</OBJECT>
		<LI> <OBJECT type="text/sitemap">
			<param name="Name" value="Pathlines">
			<param name="Local" value="Toolbox_Pathlines.htm">
			</OBJECT>
		<LI> <OBJECT type="text/sitemap">
			<param name="Name" value="Particles">
			<param name="Local" value="Toolbox_Particles.htm">
			</OBJECT>
		<LI> <OBJECT type="text/sitemap">
			<param name="Name" value="Model Features">
			<param name="Local" value="Toolbox_ModelFeatures.htm">
			</OBJECT>
		<LI> <OBJECT type="text/sitemap">
			<param name="Name" value="Crop">
			<param name="Local" value="Toolbox_Crop.htm">
			</OBJECT>
		<LI> <OBJECT type="text/sitemap">
			<param name="Name" value="Animation">
			<param name="Local" value="Toolbox_Animation.htm">
			</OBJECT>
	</UL>
	<LI> <OBJECT type="text/sitemap">
		<param name="Name" value="View Control">
		<param name="Local" value="ViewControl.htm">
		</OBJECT>
	<UL>
		<LI> <OBJECT type="text/sitemap">
			<param name="Name" value="Copying the Display to Clipboard">
			<param name="Local" value="CopyToClipboard.htm">
			</OBJECT>
		<LI> <OBJECT type="text/sitemap">
			<param name="Name" value="Resetting the Viewpoint">
			<param name="Local" value="ResetViewpoint.htm">
			</OBJECT>
		<LI> <OBJECT type="text/sitemap">
			<param name="Name" value="Setting Size of Display Area">
			<param name="Local" value="DisplaySize.htm">
			</OBJECT>
		<LI> <OBJECT type="text/sitemap">
			<param name="Name" value="Viewing From Preset Directions">
			<param name="Local" value="PresetDirections.htm">
			</OBJECT>
		<LI> <OBJECT type="text/sitemap">
			<param name="Name" value="Perspective versus Parallel Projection">
			<param name="Local" value="Projection.htm">
			</OBJECT>
		<LI> <OBJECT type="text/sitemap">
			<param name="Name" value="Saving and Restoring a Viewpoint">
			<param name="Local" value="SaveViewpoint.htm">
			</OBJECT>
		<LI> <OBJECT type="text/sitemap">
			<param name="Name" value="Assuming All Active Cells">
			<param name="Local" value="AllActiveCells.htm">
			</OBJECT>
	</UL>
	<LI> <OBJECT type="text/sitemap">
		<param name="Name" value="Exporting and Printing">
		<param name="Local" value="ExportingAndPrinting.htm">
		</OBJECT>
	<UL>
		<LI> <OBJECT type="text/sitemap">
			<param name="Name" value="Exporting the Display as a Bitmap">
			<param name="Local" value="ExportBitmap.htm">
			</OBJECT>
		<LI> <OBJECT type="text/sitemap">
			<param name="Name" value="Exporting the Display as a VRML file">
			<param name="Local" value="ExportVrml.htm">
			</OBJECT>
		<LI> <OBJECT type="text/sitemap">
			<param name="Name" value="Exporting an Animation">
			<param name="Local" value="ExportAnimation.htm">
			</OBJECT>
		<LI> <OBJECT type="text/sitemap">
			<param name="Name" value="Printing">
			<param name="Local" value="Printing.htm">
			</OBJECT>
	</UL>
</UL>
</BODY></HTML>
